Circuit: * D:\CODE\Ultra-Mega-PS\Ultra-Mega-PS-V1.00\Ultra-Mega-PowerSupply\SIMU\0-30-to-0-4v5-VoltageSense.asc

WARNING: Specified period is not longer than the sum of Trise, Tfall, and Ton for v2.  Increasing period to 2
Direct Newton iteration failed to find .op point.  (Use ".option noopiter" to skip.)
Starting Gmin stepping
Gmin = 10
Gmin = 1.07374
Gmin = 0.115292
Gmin = 0.0123794
Gmin = 0.00132923
Gmin = 0.000142725
Gmin = 1.5325e-005
Gmin = 1.6455e-006
Gmin = 1.76685e-007
Gmin = 1.89714e-008
vernier = 0.5
Gmin = 5.39022e-009
vernier = 0.666667
vernier = 0.888888
Gmin = 9.57911e-010
vernier = 1
Gmin = 1.07583e-010
Gmin = 1.15517e-011
Gmin = 1.24035e-012
Gmin = 1.33182e-013
Gmin = 0
Gmin stepping succeeded in finding the operating point.


Date: Sun Sep 25 23:30:07 2016
Total elapsed time: 0.121 seconds.

tnom = 27
temp = 27
method = modified trap
totiter = 3309
traniter = 2713
tranpoints = 1205
accept = 1158
rejected = 47
matrix size = 21
fillins = 12
solver = Normal
Matrix Compiler1: 1.53 KB object code size  0.8/0.4/[0.3]
Matrix Compiler2: off  [1.0]/1.3/1.4


